@<TRIPOS>MOLECULE
MOL
   49    52     1     0     0
SMALL
resp


@<TRIPOS>ATOM
      1 N1          -1.7000    -1.4790    -0.6110 n3         1 MOL      -0.057424
      2 C1          -1.1720    -2.5150     0.2810 c3         1 MOL      -0.041214
      3 C2          -3.1350    -1.3800    -0.8760 c3         1 MOL      -0.079119
      4 C3          -1.0460    -1.4540    -1.9270 c3         1 MOL      -0.144695
      5 C4           0.2200    -1.9310     0.5750 c3         1 MOL      -0.123498
      6 C5          -3.8390    -0.9200     0.3980 cc         1 MOL      -0.085656
      7 C6           0.4870    -1.2240    -1.7610 c          1 MOL       0.432766
      8 N2           1.0780    -1.4650    -0.5170 n          1 MOL      -0.036363
      9 N3          -4.1220     0.3940     0.6450 na         1 MOL       0.023367
     10 C7          -4.2550    -1.6970     1.4170 cd         1 MOL       0.113292
     11 O1           1.1460    -0.8340    -2.7060 o          1 MOL      -0.525557
     12 C8           2.4180    -1.2900    -0.2510 ca         1 MOL       0.033546
     13 C9          -3.8370     1.5690    -0.2120 c3         1 MOL      -0.032376
     14 C10         -4.7220     0.4910     1.8160 cc         1 MOL       0.089916
     15 N4          -4.8400    -0.7830     2.3560 nd         1 MOL      -0.608850
     16 C11          2.6860    -0.4190     0.7950 ca         1 MOL      -0.001405
     17 C12          3.5050    -1.9250    -0.9460 ca         1 MOL      -0.167682
     18 C13         -2.3410     1.8700    -0.3840 ca         1 MOL       0.061653
     19 C14          3.9920    -0.1380     1.1960 ca         1 MOL      -0.037887
     20 C15          4.8310    -1.6410    -0.5490 ca         1 MOL      -0.179910
     21 C16         -1.8200     2.2120    -1.6530 ca         1 MOL      -0.176849
     22 C17         -1.4570     1.8170     0.7030 ca         1 MOL      -0.176849
     23 C18          5.0730    -0.7470     0.5250 ca         1 MOL      -0.075845
     24 Cl1          4.2050     0.9510     2.5180 cl         1 MOL      -0.102301
     25 C19         -0.4460     2.5010    -1.8230 ca         1 MOL      -0.148402
     26 C20         -0.0980     2.1020     0.5360 ca         1 MOL      -0.148402
     27 C21          0.4100     2.4490    -0.7380 ca         1 MOL       0.010182
     28 C22          1.6990     2.7310    -0.8890 cg         1 MOL       0.344205
     29 N5           2.8360     2.9840    -1.0210 n1         1 MOL      -0.443818
     30 H1          -1.1940    -2.3740    -2.5240 h1         1 MOL       0.093827
     31 H2          -1.3990    -0.6030    -2.5080 h1         1 MOL       0.093827
     32 H3          -1.7370    -2.5410     1.2130 h1         1 MOL       0.064964
     33 H4          -1.1480    -3.5220    -0.1730 h1         1 MOL       0.064964
     34 H5          -3.5840    -2.3320    -1.2130 h1         1 MOL       0.064299
     35 H6          -3.2840    -0.6580    -1.6820 h1         1 MOL       0.064299
     36 H7           0.8040    -2.6660     1.1470 h1         1 MOL       0.069251
     37 H8           0.0310    -1.0950     1.2600 h1         1 MOL       0.069251
     38 H9          -4.2470    -2.7640     1.5720 h4         1 MOL       0.137303
     39 H10         -4.3410     2.4150     0.2640 h1         1 MOL       0.084687
     40 H11         -4.3020     1.4270    -1.1920 h1         1 MOL       0.084687
     41 H12         -5.0740     1.4030     2.2740 h5         1 MOL       0.174380
     42 H13          1.8670     0.0720     1.3020 ha         1 MOL       0.070127
     43 H14          3.2950    -2.5880    -1.7780 ha         1 MOL       0.166761
     44 H15          5.6670    -2.1000    -1.0650 ha         1 MOL       0.167610
     45 H16         -2.4810     2.2560    -2.5150 ha         1 MOL       0.156905
     46 H17         -1.8270     1.5420     1.6870 ha         1 MOL       0.156905
     47 H18          6.0900    -0.5260     0.8330 ha         1 MOL       0.140792
     48 H19         -0.0620     2.7530    -2.8050 ha         1 MOL       0.180167
     49 H20          0.5750     2.0800     1.3860 ha         1 MOL       0.180167
@<TRIPOS>BOND
     1     1     2 1   
     2     1     3 1   
     3     1     4 1   
     4     2     5 1   
     5     2    32 1   
     6     2    33 1   
     7     3     6 1   
     8     3    34 1   
     9     3    35 1   
    10     4     7 1   
    11     4    30 1   
    12     4    31 1   
    13     5     8 1   
    14     5    36 1   
    15     5    37 1   
    16     6     9 1   
    17     6    10 2   
    18     7     8 1   
    19     7    11 2   
    20     8    12 1   
    21     9    13 1   
    22     9    14 1   
    23    10    15 1   
    24    10    38 1   
    25    12    16 ar  
    26    12    17 ar  
    27    13    18 1   
    28    13    39 1   
    29    13    40 1   
    30    14    15 2   
    31    14    41 1   
    32    16    19 ar  
    33    16    42 1   
    34    17    20 ar  
    35    17    43 1   
    36    18    21 ar  
    37    18    22 ar  
    38    19    23 ar  
    39    19    24 1   
    40    20    23 ar  
    41    20    44 1   
    42    21    25 ar  
    43    21    45 1   
    44    22    26 ar  
    45    22    46 1   
    46    23    47 1   
    47    25    27 ar  
    48    25    48 1   
    49    26    27 ar  
    50    26    49 1   
    51    27    28 1   
    52    28    29 3   
@<TRIPOS>SUBSTRUCTURE
     1 MOL         1 TEMP              0 ****  ****    0 ROOT
